/*--------------------------------*- C++ -*----------------------------------*\
| =========                 |                                                 |
| \\      /  F ield         | foam-extend: Open Source CFD                    |
|  \\    /   O peration     | Version:     3.1                                |
|   \\  /    A nd           | Web:         http://www.extend-project.de       |
|    \\/     M anipulation  |                                                 |
\*---------------------------------------------------------------------------*/
FoamFile
{
    version     2.0;
    format      ascii;
    class       dictionary;
    object      blockMeshDict;
}
// * * * * * * * * * * * * * * * * * * * * * * * * * * * * * * * * * * * * * //

convertToMeters 1.0;	// scaling factor for each vertex

vertices
(
    // Unit cube
    (0 0 0)     // vertex number 0
    (1 0 0)     // vertex number 1
    (1 1 0)     // vertex number 2
    (0 1 0)     // vertex number 3
    (0 0 1)     // vertex number 4
    (1 0 1)     // vertex number 5
    (1 1 1)     // vertex number 6
    (0 1 1)     // vertex number 7
);

blocks
(
    hex (0 1 2 3 4 5 6 7)	// vertex numbers
    (4 4 4)                     // numbers of cells in each direction
    simpleGrading (1 1 1)       // cell expansion ratios
);

boundary
(
    leftPatch
    {
        type patch;
        faces
        (
            (0 4 7 3)
        );
    }

    rightPatch
    {
        type patch;
        faces
        (
            (2 6 5 1)
        );
    }

    walls
    {
        type wall;
        faces
        (
            (1 5 4 0) 
            (3 7 6 2)
            (0 3 2 1)    
        );
    }
    
    optPatch
    {
        type patch;
        faces
        (
            (4 5 6 7)
        );
    }
);

// ************************************************************************* //
