/*--------------------------------*- C++ -*----------------------------------*\
| =========                 |                                                 |
| \\      /  F ield         | OpenFOAM: The Open Source CFD Toolbox           |
|  \\    /   O peration     | Version:  3.0.1                                 |
|   \\  /    A nd           | Web:      www.OpenFOAM.org                      |
|    \\/     M anipulation  |                                                 |
\*---------------------------------------------------------------------------*/
FoamFile
{
    version     2.0;
    format      ascii;
    class       dictionary;
    location    "system";
    object      fvSolution;
}
// * * * * * * * * * * * * * * * * * * * * * * * * * * * * * * * * * * * * * //

solvers
{
    phi
    {
        solver          PCG;	// preconditioned conjugate gradient 
        preconditioner  DIC;    // diagonal-based incomplete Cholesky smoother for sym matrices
        tolerance       1e-21;
        relTol          0;
        
//         solver          PBiCG;    // preconditioned bi-conjugate gradient 
//         preconditioner  none;    // diagonal-based incomplete Cholesky smoother for asym matrices
//         tolerance       1e-21;
//         relTol          0;

        //solver          smoothSolver; // for sym and asym matrices
        //smoother        GaussSeidel;
        
        //solver           BICCG;   // asym matrices
        //preconditioner   DILU;
        //tolerance        1e-21;
        //relTol           0.0;

//         solver                  GAMG;    // sym and asym matrices
//         tolerance               1e-21;
//         relTol                  0.0;
//         smoother                GaussSeidel;
//         nPreSweeps              0;
//         nPostSweeps             2;
//         cacheAgglomeration      on;
//         agglomerator            faceAreaPair;
//         nCellsInCoarsestLevel   10;
//         mergeLevels             1;
    }
    
    adjPhi
    {
//         solver          PCG;    // preconditioned conjugate gradient 
//         preconditioner  DIC;    // diagonal-based incomplete Cholesky smoother for sym matrices
//         tolerance       1e-20;
//         relTol          0;
        
        solver          PBiCG;    // preconditioned bi-conjugate gradient 
        preconditioner  none;    // diagonal-based incomplete Cholesky smoother for asym matrices
        tolerance       1e-21;
        relTol          0;

        //solver          smoothSolver; // for sym and asym matrices
        //smoother        GaussSeidel;
        
        //solver           BICCG;   // asym matrices
        //preconditioner   DILU;
        //tolerance        1e-21;
        //relTol           0.0;

//         solver                  GAMG;
//         tolerance               1e-21;
//         relTol                  0.0;
//         smoother                GaussSeidel;
//         nPreSweeps              0;
//         nPostSweeps             2;
//         cacheAgglomeration      on;
//         agglomerator            faceAreaPair;
//         nCellsInCoarsestLevel   10;
//         mergeLevels             1;
    }
}

// relaxationFactors
// {
//     equations
//     {
//         nuTilda                 0.3;
//         ".*"                    0.3;
//         nuTildaEqn              0.3;
//     }
// }
// ************************************************************************* //
